CM forw: 90, 0 ; back: 0, 0
CE
GW 1 7 0 0 0 0 0 0.058193 4.0591e-4
GW 2 7 0.0625 0 0 0.0625 0 0.058193 4.0591e-4
GW 3 7 0.125 0 0 0.125 0 0.058193 4.0591e-4
GW 4 7 0.1875 0 0 0.1875 0 0.058193 4.0591e-4
GW 5 7 0.25 0 0 0.25 0 0.058193 4.0591e-4
GW 6 7 0.3125 0 0 0.3125 0 0.058193 4.0591e-4
GW 7 7 0.375 0 0 0.375 0 0.058193 4.0591e-4
GW 8 7 0.4375 0 0 0.4375 0 0.058193 4.0591e-4
GE 0
EK
EX 0 1 4 0 1 0
EX 0 2 4 0 1 0
EX 0 3 4 0 1 0
EX 0 4 4 0 1 0
EX 0 5 4 0 1 0
EX 0 6 4 0 1 0
EX 0 7 4 0 1 0
EX 0 8 4 0 1 0
GN -1
FR 0 1 0 0 2400 0
RP 0 1 361 1000 90 0 0 1
